
  -OEChem-07191916163D

214225  0     1  0  0  0  0  0999 V2000
   25.3430  110.1360   33.1190 C   0  0  2  0  0  0  0  0  0  0  0  0
   24.9320  110.0370   34.5070 O   0  0  0  0  0  0  0  0  0  0  0  0
   25.0520  108.7970   32.3850 C   0  0  2  0  0  0  0  0  0  0  0  0
   23.6450  108.5630   32.3040 O   0  0  0  0  0  0  0  0  0  0  0  0
   25.7400  107.6550   33.1530 C   0  0  1  0  0  0  0  0  0  0  0  0
   25.4770  106.4220   32.4840 O   0  0  0  0  0  0  0  0  0  0  0  0
   27.2550  107.9090   33.2500 C   0  0  1  0  0  0  0  0  0  0  0  0
   27.5480  109.2800   33.8840 C   0  0  2  0  0  0  0  0  0  0  0  0
   26.7800  110.3150   33.1620 O   0  0  0  0  0  0  0  0  0  0  0  0
   29.0350  109.6360   33.7460 C   0  0  0  0  0  0  0  0  0  0  0  0
   29.3700  109.8730   32.3880 O   0  0  0  0  0  0  0  0  0  0  0  0
   21.7150  111.1190   36.9940 C   0  0  2  0  0  0  0  0  0  0  0  0
   22.6410  110.8570   38.0760 O   0  0  0  0  0  0  0  0  0  0  0  0
   21.5310  109.8260   36.1530 C   0  0  2  0  0  0  0  0  0  0  0  0
   20.9500  108.7840   36.9440 O   0  0  0  0  0  0  0  0  0  0  0  0
   22.9040  109.3690   35.6330 C   0  0  1  0  0  0  0  0  0  0  0  0
   22.7090  108.2050   34.8340 O   0  0  0  0  0  0  0  0  0  0  0  0
   23.5820  110.4860   34.8200 C   0  0  1  0  0  0  0  0  0  0  0  0
   23.6990  111.7700   35.6590 C   0  0  2  0  0  0  0  0  0  0  0  0
   22.3620  112.1160   36.1660 O   0  0  0  0  0  0  0  0  0  0  0  0
   24.1970  112.9550   34.8210 C   0  0  0  0  0  0  0  0  0  0  0  0
   23.3090  113.2250   33.7480 O   0  0  0  0  0  0  0  0  0  0  0  0
   22.6100  110.8350   42.2690 C   0  0  2  0  0  0  0  0  0  0  0  0
   23.5830  109.7710   42.0940 O   0  0  0  0  0  0  0  0  0  0  0  0
   21.2720  110.4500   41.5750 C   0  0  2  0  0  0  0  0  0  0  0  0
   20.6770  109.3230   42.2230 O   0  0  0  0  0  0  0  0  0  0  0  0
   21.5580  110.1230   40.1000 C   0  0  1  0  0  0  0  0  0  0  0  0
   20.3320  109.7810   39.4570 O   0  0  0  0  0  0  0  0  0  0  0  0
   22.2270  111.3160   39.3940 C   0  0  1  0  0  0  0  0  0  0  0  0
   23.4940  111.7640   40.1430 C   0  0  2  0  0  0  0  0  0  0  0  0
   23.1610  111.9740   41.5640 O   0  0  0  0  0  0  0  0  0  0  0  0
   24.0110  113.1000   39.5920 C   0  0  0  0  0  0  0  0  0  0  0  0
   23.1190  114.1550   39.9140 O   0  0  0  0  0  0  0  0  0  0  0  0
   25.0490  106.4540   44.2670 C   0  0  2  0  0  0  0  0  0  0  0  0
   26.1430  106.4100   43.3170 O   0  0  0  0  0  0  0  0  0  0  0  0
   23.7030  106.2640   43.5120 C   0  0  2  0  0  0  0  0  0  0  0  0
   23.6620  104.9890   42.8630 O   0  0  0  0  0  0  0  0  0  0  0  0
   23.5570  107.3770   42.4620 C   0  0  1  0  0  0  0  0  0  0  0  0
   22.3140  107.1920   41.7910 O   0  0  0  0  0  0  0  0  0  0  0  0
   23.6260  108.7570   43.1400 C   0  0  1  0  0  0  0  0  0  0  0  0
   24.9590  108.9050   43.8920 C   0  0  2  0  0  0  0  0  0  0  0  0
   25.0790  107.7870   44.8380 O   0  0  0  0  0  0  0  0  0  0  0  0
   25.0080  110.2070   44.7060 C   0  0  0  0  0  0  0  0  0  0  0  0
   23.9590  110.2500   45.6600 O   0  0  0  0  0  0  0  0  0  0  0  0
   29.4710  103.8590   42.7090 C   0  0  2  0  0  0  0  0  0  0  0  0
   29.2230  104.0200   41.2870 O   0  0  0  0  0  0  0  0  0  0  0  0
   28.2190  103.2370   43.3840 C   0  0  2  0  0  0  0  0  0  0  0  0
   27.9670  101.9490   42.8330 O   0  0  0  0  0  0  0  0  0  0  0  0
   27.0040  104.1490   43.1370 C   0  0  1  0  0  0  0  0  0  0  0  0
   25.8630  103.5590   43.7580 O   0  0  0  0  0  0  0  0  0  0  0  0
   27.2690  105.5610   43.6910 C   0  0  1  0  0  0  0  0  0  0  0  0
   28.5310  106.1440   43.0390 C   0  0  2  0  0  0  0  0  0  0  0  0
   29.6450  105.1990   43.2370 O   0  0  0  0  0  0  0  0  0  0  0  0
   28.9350  107.4650   43.7120 C   0  0  0  0  0  0  0  0  0  0  0  0
   29.4140  107.2310   45.0260 O   0  0  0  0  0  0  0  0  0  0  0  0
   31.2410  103.7750   37.5810 C   0  0  2  0  0  0  0  0  0  0  0  0
   30.2110  104.6940   37.1250 O   0  0  0  0  0  0  0  0  0  0  0  0
   30.5980  102.4620   38.0900 C   0  0  2  0  0  0  0  0  0  0  0  0
   29.9870  101.7740   36.9960 O   0  0  0  0  0  0  0  0  0  0  0  0
   29.5800  102.7910   39.2070 C   0  0  2  0  0  0  0  0  0  0  0  0
   30.2690  103.5490   40.3690 C   0  0  1  0  0  0  0  0  0  0  0  0
   31.0140  104.7960   39.8330 C   0  0  2  0  0  0  0  0  0  0  0  0
   31.8770  104.4090   38.7080 O   0  0  0  0  0  0  0  0  0  0  0  0
   31.9470  105.4250   40.8780 C   0  0  0  0  0  0  0  0  0  0  0  0
   32.9120  104.4880   41.3330 O   0  0  0  0  0  0  0  0  0  0  0  0
   28.9760  101.5210   39.6370 N   0  0  0  0  0  0  0  0  0  0  0  0
   28.3470  105.7220   33.4550 C   0  0  2  0  0  0  0  0  0  0  0  0
   27.8120  106.8860   34.1260 O   0  0  0  0  0  0  0  0  0  0  0  0
   27.8410  104.4350   34.1640 C   0  0  2  0  0  0  0  0  0  0  0  0
   26.4120  104.3550   34.1040 O   0  0  0  0  0  0  0  0  0  0  0  0
   28.3010  104.4480   35.6320 C   0  0  1  0  0  0  0  0  0  0  0  0
   27.8540  103.2360   36.2360 O   0  0  0  0  0  0  0  0  0  0  0  0
   29.8340  104.5830   35.7130 C   0  0  1  0  0  0  0  0  0  0  0  0
   30.2870  105.8630   34.9920 C   0  0  2  0  0  0  0  0  0  0  0  0
   29.7830  105.8100   33.6110 O   0  0  0  0  0  0  0  0  0  0  0  0
   31.8170  105.9630   34.9170 C   0  0  0  0  0  0  0  0  0  0  0  0
   32.3580  104.8790   34.1790 O   0  0  0  0  0  0  0  0  0  0  0  0
   30.2610  100.3080   31.0880 C   0  0  0  0  0  0  0  0  0  0  0  0
   30.4620  100.8250   29.6460 C   0  0  0  0  0  0  0  0  0  0  0  0
   30.1440   99.7880   28.5550 C   0  0  1  0  0  0  0  0  0  0  0  0
   31.0740   99.9060   27.5040 O   0  0  0  0  0  0  0  0  0  0  0  0
   30.2290   98.3670   29.1030 C   0  0  0  0  0  0  0  0  0  0  0  0
   29.2520   98.1180   30.2800 C   0  0  1  0  0  0  0  0  0  0  0  0
   29.7510   96.8440   30.9790 C   0  0  0  0  0  0  0  0  0  0  0  0
   28.8200   96.3780   32.1030 C   0  0  1  0  0  0  0  0  0  0  0  0
   29.6150   95.4930   32.8690 O   0  0  0  0  0  0  0  0  0  0  0  0
   28.1900   97.5430   32.9220 C   0  0  1  0  0  0  0  0  0  0  0  0
   27.9870   97.1900   34.4180 C   0  0  2  0  0  0  0  0  0  0  0  0
   27.1380   95.9590   34.7530 C   0  0  0  0  0  0  0  0  0  0  0  0
   26.7860   96.1380   36.2380 C   0  0  0  0  0  0  0  0  0  0  0  0
   27.2900   97.5420   36.6430 C   0  0  2  0  0  0  0  0  0  0  0  0
   26.6220   98.1310   37.9280 C   0  0  1  0  0  0  0  0  0  0  0  0
   27.2160   99.5160   38.2500 C   0  0  0  0  0  0  0  0  0  0  0  0
   27.0880   99.9830   39.7120 C   0  0  0  0  0  0  0  0  0  0  0  0
   27.6790  101.3760   39.8890 C   0  0  0  0  0  0  0  0  0  0  0  0
   25.0810   98.2020   37.9630 C   0  0  0  0  0  0  0  0  0  0  0  0
   27.3740   98.3100   35.2870 C   0  0  2  0  0  0  0  0  0  0  0  0
   25.9610   98.7570   34.8160 C   0  0  0  0  0  0  0  0  0  0  0  0
   28.3420   99.5240   35.2090 C   0  0  1  0  0  0  0  0  0  0  0  0
   29.6110   99.2850   35.7930 O   0  0  0  0  0  0  0  0  0  0  0  0
   28.5670   99.9790   33.7580 C   0  0  0  0  0  0  0  0  0  0  0  0
   29.0110   98.8590   32.7690 C   0  0  2  0  0  0  0  0  0  0  0  0
   29.0730   99.3250   31.2660 C   0  0  1  0  0  0  0  0  0  0  0  0
   27.7730  100.0730   30.8620 C   0  0  0  0  0  0  0  0  0  0  0  0
   26.9780  102.3080   40.2590 O   0  0  0  0  0  0  0  0  0  0  0  0
   29.4550  100.6870   39.3370 H   0  0  0  0  0  0  0  0  0  0  0  0
   24.8610  110.9650   32.6130 H   0  0  0  0  0  0  0  0  0  0  0  0
   25.4590  108.8350   31.3740 H   0  0  0  0  0  0  0  0  0  0  0  0
   23.2950  108.4410   33.2120 H   0  0  0  0  0  0  0  0  0  0  0  0
   25.3300  107.6050   34.1640 H   0  0  0  0  0  0  0  0  0  0  0  0
   24.5580  106.4770   32.1800 H   0  0  0  0  0  0  0  0  0  0  0  0
   27.6840  107.8900   32.2460 H   0  0  0  0  0  0  0  0  0  0  0  0
   27.2900  109.2430   34.9440 H   0  0  0  0  0  0  0  0  0  0  0  0
   29.2320  110.5390   34.3250 H   0  0  0  0  0  0  0  0  0  0  0  0
   29.6460  108.8240   34.1410 H   0  0  0  0  0  0  0  0  0  0  0  0
   28.7310  110.5150   32.0520 H   0  0  0  0  0  0  0  0  0  0  0  0
   20.7550  111.4690   37.3550 H   0  0  0  0  0  0  0  0  0  0  0  0
   20.8830  110.0270   35.2990 H   0  0  0  0  0  0  0  0  0  0  0  0
   20.7690  109.1260   37.8420 H   0  0  0  0  0  0  0  0  0  0  0  0
   23.5400  109.1170   36.4840 H   0  0  0  0  0  0  0  0  0  0  0  0
   22.1120  107.6410   35.3510 H   0  0  0  0  0  0  0  0  0  0  0  0
   22.9780  110.6850   33.9330 H   0  0  0  0  0  0  0  0  0  0  0  0
   24.4100  111.5970   36.4680 H   0  0  0  0  0  0  0  0  0  0  0  0
   24.2700  113.8330   35.4640 H   0  0  0  0  0  0  0  0  0  0  0  0
   25.1910  112.7290   34.4290 H   0  0  0  0  0  0  0  0  0  0  0  0
   22.4490  113.4310   34.1350 H   0  0  0  0  0  0  0  0  0  0  0  0
   22.4480  111.0650   43.3160 H   0  0  0  0  0  0  0  0  0  0  0  0
   20.5780  111.2900   41.6210 H   0  0  0  0  0  0  0  0  0  0  0  0
   21.2550  108.5450   42.0810 H   0  0  0  0  0  0  0  0  0  0  0  0
   22.2360  109.2680   40.0490 H   0  0  0  0  0  0  0  0  0  0  0  0
   19.8320  109.2530   40.0980 H   0  0  0  0  0  0  0  0  0  0  0  0
   21.5240  112.1510   39.3550 H   0  0  0  0  0  0  0  0  0  0  0  0
   24.2680  111.0060   40.0120 H   0  0  0  0  0  0  0  0  0  0  0  0
   24.9840  113.3080   40.0390 H   0  0  0  0  0  0  0  0  0  0  0  0
   24.1290  113.0320   38.5090 H   0  0  0  0  0  0  0  0  0  0  0  0
   22.9540  114.1000   40.8640 H   0  0  0  0  0  0  0  0  0  0  0  0
   25.1510  105.6990   45.0370 H   0  0  0  0  0  0  0  0  0  0  0  0
   22.8710  106.3320   44.2130 H   0  0  0  0  0  0  0  0  0  0  0  0
   24.4550  104.4790   43.1160 H   0  0  0  0  0  0  0  0  0  0  0  0
   24.3710  107.2960   41.7390 H   0  0  0  0  0  0  0  0  0  0  0  0
   22.2880  106.2470   41.5700 H   0  0  0  0  0  0  0  0  0  0  0  0
   22.8000  108.8380   43.8490 H   0  0  0  0  0  0  0  0  0  0  0  0
   25.7750  108.9170   43.1680 H   0  0  0  0  0  0  0  0  0  0  0  0
   25.9700  110.2630   45.2190 H   0  0  0  0  0  0  0  0  0  0  0  0
   24.9260  111.0600   44.0300 H   0  0  0  0  0  0  0  0  0  0  0  0
   24.0800  109.4970   46.2510 H   0  0  0  0  0  0  0  0  0  0  0  0
   30.3420  103.2450   42.9020 H   0  0  0  0  0  0  0  0  0  0  0  0
   28.3780  103.1440   44.4590 H   0  0  0  0  0  0  0  0  0  0  0  0
   27.7470  102.0920   41.8910 H   0  0  0  0  0  0  0  0  0  0  0  0
   26.8250  104.2240   42.0620 H   0  0  0  0  0  0  0  0  0  0  0  0
   25.9180  102.6100   43.5680 H   0  0  0  0  0  0  0  0  0  0  0  0
   27.4190  105.5070   44.7710 H   0  0  0  0  0  0  0  0  0  0  0  0
   28.3310  106.3300   41.9830 H   0  0  0  0  0  0  0  0  0  0  0  0
   29.7280  107.9270   43.1230 H   0  0  0  0  0  0  0  0  0  0  0  0
   28.0800  108.1420   43.7420 H   0  0  0  0  0  0  0  0  0  0  0  0
   30.0680  106.5230   44.9610 H   0  0  0  0  0  0  0  0  0  0  0  0
   31.9620  103.5660   36.7990 H   0  0  0  0  0  0  0  0  0  0  0  0
   31.3750  101.8210   38.5080 H   0  0  0  0  0  0  0  0  0  0  0  0
   29.1830  102.2840   36.7550 H   0  0  0  0  0  0  0  0  0  0  0  0
   28.8030  103.4400   38.7940 H   0  0  0  0  0  0  0  0  0  0  0  0
   30.9810  102.8730   40.8440 H   0  0  0  0  0  0  0  0  0  0  0  0
   30.2750  105.5410   39.5330 H   0  0  0  0  0  0  0  0  0  0  0  0
   32.4570  106.2740   40.4220 H   0  0  0  0  0  0  0  0  0  0  0  0
   31.3690  105.7980   41.7190 H   0  0  0  0  0  0  0  0  0  0  0  0
   33.4540  104.2430   40.5730 H   0  0  0  0  0  0  0  0  0  0  0  0
   28.0690  105.6970   32.4080 H   0  0  0  0  0  0  0  0  0  0  0  0
   28.2640  103.5550   33.6770 H   0  0  0  0  0  0  0  0  0  0  0  0
   26.0720  105.1100   33.5850 H   0  0  0  0  0  0  0  0  0  0  0  0
   27.8440  105.2970   36.1440 H   0  0  0  0  0  0  0  0  0  0  0  0
   26.9040  103.1920   36.0470 H   0  0  0  0  0  0  0  0  0  0  0  0
   30.2840  103.7210   35.2180 H   0  0  0  0  0  0  0  0  0  0  0  0
   29.9080  106.7300   35.5360 H   0  0  0  0  0  0  0  0  0  0  0  0
   32.0830  106.9030   34.4280 H   0  0  0  0  0  0  0  0  0  0  0  0
   32.2330  105.9690   35.9260 H   0  0  0  0  0  0  0  0  0  0  0  0
   31.9810  104.9250   33.2920 H   0  0  0  0  0  0  0  0  0  0  0  0
   28.2770   97.8770   29.8510 H   0  0  0  0  0  0  0  0  0  0  0  0
   30.0260   98.5980   33.0770 H   0  0  0  0  0  0  0  0  0  0  0  0
   27.2050   97.7100   32.4920 H   0  0  0  0  0  0  0  0  0  0  0  0
   28.9870   96.9870   34.8130 H   0  0  0  0  0  0  0  0  0  0  0  0
   31.1740   99.7930   31.3920 H   0  0  0  0  0  0  0  0  0  0  0  0
   30.1470  101.1700   31.7440 H   0  0  0  0  0  0  0  0  0  0  0  0
   29.8200  101.6910   29.4860 H   0  0  0  0  0  0  0  0  0  0  0  0
   31.4980  101.1550   29.5500 H   0  0  0  0  0  0  0  0  0  0  0  0
   29.1390   99.9550   28.1660 H   0  0  0  0  0  0  0  0  0  0  0  0
   31.0320  100.7970   27.1480 H   0  0  0  0  0  0  0  0  0  0  0  0
   30.0180   97.6620   28.2980 H   0  0  0  0  0  0  0  0  0  0  0  0
   31.2570   98.2040   29.4310 H   0  0  0  0  0  0  0  0  0  0  0  0
   29.8440   96.0390   30.2490 H   0  0  0  0  0  0  0  0  0  0  0  0
   30.7400   97.0440   31.3960 H   0  0  0  0  0  0  0  0  0  0  0  0
   27.9990   95.8090   31.6650 H   0  0  0  0  0  0  0  0  0  0  0  0
   30.0260   94.8550   32.2820 H   0  0  0  0  0  0  0  0  0  0  0  0
   27.7000   95.0380   34.5950 H   0  0  0  0  0  0  0  0  0  0  0  0
   26.2300   95.9500   34.1480 H   0  0  0  0  0  0  0  0  0  0  0  0
   25.7090   96.0400   36.3480 H   0  0  0  0  0  0  0  0  0  0  0  0
   27.2810   95.3770   36.8430 H   0  0  0  0  0  0  0  0  0  0  0  0
   28.3290   97.3820   36.9440 H   0  0  0  0  0  0  0  0  0  0  0  0
   26.9140   97.4590   38.7380 H   0  0  0  0  0  0  0  0  0  0  0  0
   26.7480  100.2640   37.6080 H   0  0  0  0  0  0  0  0  0  0  0  0
   28.2800   99.4880   38.0180 H   0  0  0  0  0  0  0  0  0  0  0  0
   26.0400  100.0220   40.0050 H   0  0  0  0  0  0  0  0  0  0  0  0
   27.6130   99.2890   40.3670 H   0  0  0  0  0  0  0  0  0  0  0  0
   24.7440   98.5080   38.9520 H   0  0  0  0  0  0  0  0  0  0  0  0
   24.6400   97.2280   37.7680 H   0  0  0  0  0  0  0  0  0  0  0  0
   24.7000   98.9200   37.2400 H   0  0  0  0  0  0  0  0  0  0  0  0
   25.2230   97.9730   34.9770 H   0  0  0  0  0  0  0  0  0  0  0  0
   25.6540   99.6430   35.3680 H   0  0  0  0  0  0  0  0  0  0  0  0
   25.9500   99.0080   33.7590 H   0  0  0  0  0  0  0  0  0  0  0  0
   27.8850  100.3580   35.7410 H   0  0  0  0  0  0  0  0  0  0  0  0
   29.9420  100.1330   36.1330 H   0  0  0  0  0  0  0  0  0  0  0  0
   29.3190  100.7650   33.7720 H   0  0  0  0  0  0  0  0  0  0  0  0
   27.6380  100.4320   33.4260 H   0  0  0  0  0  0  0  0  0  0  0  0
   27.7330  101.0590   31.3230 H   0  0  0  0  0  0  0  0  0  0  0  0
   27.7130  100.2170   29.7860 H   0  0  0  0  0  0  0  0  0  0  0  0
   26.8940   99.5050   31.1650 H   0  0  0  0  0  0  0  0  0  0  0  0
  1  2  1  0  0  0  0
  1  3  1  0  0  0  0
  1  9  1  0  0  0  0
  1107  1  0  0  0  0
  2 18  1  0  0  0  0
  3  4  1  0  0  0  0
  3  5  1  0  0  0  0
  3108  1  0  0  0  0
  4109  1  0  0  0  0
  5  6  1  0  0  0  0
  5  7  1  0  0  0  0
  5110  1  0  0  0  0
  6111  1  0  0  0  0
  7  8  1  0  0  0  0
  7 68  1  0  0  0  0
  7112  1  0  0  0  0
  8  9  1  0  0  0  0
  8 10  1  0  0  0  0
  8113  1  0  0  0  0
 10 11  1  0  0  0  0
 10114  1  0  0  0  0
 10115  1  0  0  0  0
 11116  1  0  0  0  0
 12 13  1  0  0  0  0
 12 14  1  0  0  0  0
 12 20  1  0  0  0  0
 12117  1  0  0  0  0
 13 29  1  0  0  0  0
 14 15  1  0  0  0  0
 14 16  1  0  0  0  0
 14118  1  0  0  0  0
 15119  1  0  0  0  0
 16 17  1  0  0  0  0
 16 18  1  0  0  0  0
 16120  1  0  0  0  0
 17121  1  0  0  0  0
 18 19  1  0  0  0  0
 18122  1  0  0  0  0
 19 20  1  0  0  0  0
 19 21  1  0  0  0  0
 19123  1  0  0  0  0
 21 22  1  0  0  0  0
 21124  1  0  0  0  0
 21125  1  0  0  0  0
 22126  1  0  0  0  0
 23 24  1  0  0  0  0
 23 25  1  0  0  0  0
 23 31  1  0  0  0  0
 23127  1  0  0  0  0
 24 40  1  0  0  0  0
 25 26  1  0  0  0  0
 25 27  1  0  0  0  0
 25128  1  0  0  0  0
 26129  1  0  0  0  0
 27 28  1  0  0  0  0
 27 29  1  0  0  0  0
 27130  1  0  0  0  0
 28131  1  0  0  0  0
 29 30  1  0  0  0  0
 29132  1  0  0  0  0
 30 31  1  0  0  0  0
 30 32  1  0  0  0  0
 30133  1  0  0  0  0
 32 33  1  0  0  0  0
 32134  1  0  0  0  0
 32135  1  0  0  0  0
 33136  1  0  0  0  0
 34 35  1  0  0  0  0
 34 36  1  0  0  0  0
 34 42  1  0  0  0  0
 34137  1  0  0  0  0
 35 51  1  0  0  0  0
 36 37  1  0  0  0  0
 36 38  1  0  0  0  0
 36138  1  0  0  0  0
 37139  1  0  0  0  0
 38 39  1  0  0  0  0
 38 40  1  0  0  0  0
 38140  1  0  0  0  0
 39141  1  0  0  0  0
 40 41  1  0  0  0  0
 40142  1  0  0  0  0
 41 42  1  0  0  0  0
 41 43  1  0  0  0  0
 41143  1  0  0  0  0
 43 44  1  0  0  0  0
 43144  1  0  0  0  0
 43145  1  0  0  0  0
 44146  1  0  0  0  0
 45 46  1  0  0  0  0
 45 47  1  0  0  0  0
 45 53  1  0  0  0  0
 45147  1  0  0  0  0
 46 61  1  0  0  0  0
 47 48  1  0  0  0  0
 47 49  1  0  0  0  0
 47148  1  0  0  0  0
 48149  1  0  0  0  0
 49 50  1  0  0  0  0
 49 51  1  0  0  0  0
 49150  1  0  0  0  0
 50151  1  0  0  0  0
 51 52  1  0  0  0  0
 51152  1  0  0  0  0
 52 53  1  0  0  0  0
 52 54  1  0  0  0  0
 52153  1  0  0  0  0
 54 55  1  0  0  0  0
 54154  1  0  0  0  0
 54155  1  0  0  0  0
 55156  1  0  0  0  0
 56 57  1  0  0  0  0
 56 58  1  0  0  0  0
 56 63  1  0  0  0  0
 56157  1  0  0  0  0
 57 73  1  0  0  0  0
 58 59  1  0  0  0  0
 58 60  1  0  0  0  0
 58158  1  0  0  0  0
 59159  1  0  0  0  0
 60 61  1  0  0  0  0
 60 66  1  0  0  0  0
 60160  1  0  0  0  0
 61 62  1  0  0  0  0
 61161  1  0  0  0  0
 62 63  1  0  0  0  0
 62 64  1  0  0  0  0
 62162  1  0  0  0  0
 64 65  1  0  0  0  0
 64163  1  0  0  0  0
 64164  1  0  0  0  0
 65165  1  0  0  0  0
 66 95  1  0  0  0  0
 66106  1  0  0  0  0
 67 68  1  0  0  0  0
 67 69  1  0  0  0  0
 67 75  1  0  0  0  0
 67166  1  0  0  0  0
 69 70  1  0  0  0  0
 69 71  1  0  0  0  0
 69167  1  0  0  0  0
 70168  1  0  0  0  0
 71 72  1  0  0  0  0
 71 73  1  0  0  0  0
 71169  1  0  0  0  0
 72170  1  0  0  0  0
 73 74  1  0  0  0  0
 73171  1  0  0  0  0
 74 75  1  0  0  0  0
 74 76  1  0  0  0  0
 74172  1  0  0  0  0
 76 77  1  0  0  0  0
 76173  1  0  0  0  0
 76174  1  0  0  0  0
 77175  1  0  0  0  0
 78 79  1  0  0  0  0
 78103  1  0  0  0  0
 78180  1  0  0  0  0
 78181  1  0  0  0  0
 79 80  1  0  0  0  0
 79182  1  0  0  0  0
 79183  1  0  0  0  0
 80 81  1  0  0  0  0
 80 82  1  0  0  0  0
 80184  1  0  0  0  0
 81185  1  0  0  0  0
 82 83  1  0  0  0  0
 82186  1  0  0  0  0
 82187  1  0  0  0  0
 83 84  1  0  0  0  0
 83103  1  0  0  0  0
 83176  1  0  0  0  0
 84 85  1  0  0  0  0
 84188  1  0  0  0  0
 84189  1  0  0  0  0
 85 86  1  0  0  0  0
 85 87  1  0  0  0  0
 85190  1  0  0  0  0
 86191  1  0  0  0  0
 87 88  1  0  0  0  0
 87102  1  0  0  0  0
 87178  1  0  0  0  0
 88 89  1  0  0  0  0
 88 97  1  0  0  0  0
 88179  1  0  0  0  0
 89 90  1  0  0  0  0
 89192  1  0  0  0  0
 89193  1  0  0  0  0
 90 91  1  0  0  0  0
 90194  1  0  0  0  0
 90195  1  0  0  0  0
 91 92  1  0  0  0  0
 91 97  1  0  0  0  0
 91196  1  0  0  0  0
 92 93  1  0  0  0  0
 92 96  1  0  0  0  0
 92197  1  0  0  0  0
 93 94  1  0  0  0  0
 93198  1  0  0  0  0
 93199  1  0  0  0  0
 94 95  1  0  0  0  0
 94200  1  0  0  0  0
 94201  1  0  0  0  0
 95105  2  0  0  0  0
 96202  1  0  0  0  0
 96203  1  0  0  0  0
 96204  1  0  0  0  0
 97 98  1  0  0  0  0
 97 99  1  0  0  0  0
 98205  1  0  0  0  0
 98206  1  0  0  0  0
 98207  1  0  0  0  0
 99100  1  0  0  0  0
 99101  1  0  0  0  0
 99208  1  0  0  0  0
100209  1  0  0  0  0
101102  1  0  0  0  0
101210  1  0  0  0  0
101211  1  0  0  0  0
102103  1  0  0  0  0
102177  1  0  0  0  0
103104  1  0  0  0  0
104212  1  0  0  0  0
104213  1  0  0  0  0
104214  1  0  0  0  0
M  END
$$$$
