
  -OEChem-06291913143D

 40 44  0     0  0  0  0  0  0999 V2000
    0.1731    1.6756   -1.5865 C   0  0  0  0  0  0  0  0  0  0  0  0
    0.8368    1.9980    0.8141 C   0  0  0  0  0  0  0  0  0  0  0  0
    2.1685    0.4632   -0.6618 C   0  0  0  0  0  0  0  0  0  0  0  0
   -2.1685   -0.4631    0.6618 C   0  0  0  0  0  0  0  0  0  0  0  0
   -0.8368   -1.9979   -0.8141 C   0  0  0  0  0  0  0  0  0  0  0  0
   -0.1730   -1.6758    1.5864 C   0  0  0  0  0  0  0  0  0  0  0  0
   -0.7358    0.5009   -1.1849 C   0  0  0  0  0  0  0  0  0  0  0  0
   -0.0683    0.8250    1.2292 C   0  0  0  0  0  0  0  0  0  0  0  0
    1.2709   -0.7184   -0.2549 C   0  0  0  0  0  0  0  0  0  0  0  0
   -1.2709    0.7184    0.2550 C   0  0  0  0  0  0  0  0  0  0  0  0
    0.0683   -0.8250   -1.2292 C   0  0  0  0  0  0  0  0  0  0  0  0
    0.7358   -0.5010    1.1849 C   0  0  0  0  0  0  0  0  0  0  0  0
    1.3550    1.7636   -0.6114 C   0  0  0  0  0  0  0  0  0  0  0  0
   -1.3551   -1.7636    0.6115 C   0  0  0  0  0  0  0  0  0  0  0  0
    2.2274    2.8992   -1.0049 N   0  3  0  0  0  0  0  0  0  0  0  0
   -2.2276   -2.8992    1.0052 N   0  3  0  0  0  0  0  0  0  0  0  0
    0.5288    1.5284   -2.6143 H   0  0  0  0  0  0  0  0  0  0  0  0
   -0.4071    2.6072   -1.5771 H   0  0  0  0  0  0  0  0  0  0  0  0
    0.2695    2.9359    0.8710 H   0  0  0  0  0  0  0  0  0  0  0  0
    1.6721    2.0837    1.5208 H   0  0  0  0  0  0  0  0  0  0  0  0
    3.0302    0.5188    0.0157 H   0  0  0  0  0  0  0  0  0  0  0  0
    2.5635    0.2920   -1.6715 H   0  0  0  0  0  0  0  0  0  0  0  0
   -2.5636   -0.2920    1.6714 H   0  0  0  0  0  0  0  0  0  0  0  0
   -3.0300   -0.5186   -0.0158 H   0  0  0  0  0  0  0  0  0  0  0  0
   -1.6720   -2.0837   -1.5209 H   0  0  0  0  0  0  0  0  0  0  0  0
   -0.2697   -2.9359   -0.8707 H   0  0  0  0  0  0  0  0  0  0  0  0
    0.4072   -2.6074    1.5768 H   0  0  0  0  0  0  0  0  0  0  0  0
   -0.5287   -1.5287    2.6143 H   0  0  0  0  0  0  0  0  0  0  0  0
   -1.5776    0.4453   -1.8864 H   0  0  0  0  0  0  0  0  0  0  0  0
   -0.4340    1.0005    2.2488 H   0  0  0  0  0  0  0  0  0  0  0  0
    1.8600   -1.6433   -0.2934 H   0  0  0  0  0  0  0  0  0  0  0  0
   -1.8597    1.6434    0.2936 H   0  0  0  0  0  0  0  0  0  0  0  0
    0.4342   -1.0007   -2.2487 H   0  0  0  0  0  0  0  0  0  0  0  0
    1.5776   -0.4454    1.8865 H   0  0  0  0  0  0  0  0  0  0  0  0
    3.1385    2.8386   -0.5391 H   0  0  0  0  0  0  0  0  0  0  0  0
    1.7989    3.7945   -0.7482 H   0  0  0  0  0  0  0  0  0  0  0  0
    2.3881    2.9028   -2.0173 H   0  0  0  0  0  0  0  0  0  0  0  0
   -2.6328   -2.7436    1.9337 H   0  0  0  0  0  0  0  0  0  0  0  0
   -1.6957   -3.7751    1.0336 H   0  0  0  0  0  0  0  0  0  0  0  0
   -2.9973   -3.0166    0.3384 H   0  0  0  0  0  0  0  0  0  0  0  0
  1  7  1  0  0  0  0
  1 13  1  0  0  0  0
  2  8  1  0  0  0  0
  2 13  1  0  0  0  0
  3  9  1  0  0  0  0
  3 13  1  0  0  0  0
  4 10  1  0  0  0  0
  4 14  1  0  0  0  0
  5 11  1  0  0  0  0
  5 14  1  0  0  0  0
  6 12  1  0  0  0  0
  6 14  1  0  0  0  0
  7 10  1  0  0  0  0
  7 11  1  0  0  0  0
  8 10  1  0  0  0  0
  8 12  1  0  0  0  0
  9 11  1  0  0  0  0
  9 12  1  0  0  0  0
 13 15  1  0  0  0  0
 14 16  1  0  0  0  0
  1 17  1  0  0  0  0
  1 18  1  0  0  0  0
  2 19  1  0  0  0  0
  2 20  1  0  0  0  0
  3 21  1  0  0  0  0
  3 22  1  0  0  0  0
  4 23  1  0  0  0  0
  4 24  1  0  0  0  0
  5 25  1  0  0  0  0
  5 26  1  0  0  0  0
  6 27  1  0  0  0  0
  6 28  1  0  0  0  0
  7 29  1  0  0  0  0
  8 30  1  0  0  0  0
  9 31  1  0  0  0  0
 10 32  1  0  0  0  0
 11 33  1  0  0  0  0
 12 34  1  0  0  0  0
 15 35  1  0  0  0  0
 15 36  1  0  0  0  0
 15 37  1  0  0  0  0
 16 38  1  0  0  0  0
 16 39  1  0  0  0  0
 16 40  1  0  0  0  0
M  CHG  2  15   1  16   1
M  END
$$$$
