
  -OEChem-07051916233D

 24 24  0     0  0  0  0  0  0999 V2000
    1.0239   -0.4612   -0.9701 C   0  0  0  0  0  0  0  0  0  0  0  0
    0.8205   -1.1812    0.3657 C   0  0  0  0  0  0  0  0  0  0  0  0
   -0.8205    1.1812   -0.3659 C   0  0  0  0  0  0  0  0  0  0  0  0
   -1.0239    0.4613    0.9701 C   0  0  0  0  0  0  0  0  0  0  0  0
    0.5865    1.0034   -0.9371 C   0  0  0  0  0  0  0  0  0  0  0  0
   -0.5865   -1.0033    0.9371 C   0  0  0  0  0  0  0  0  0  0  0  0
    1.5531    1.7851   -0.1121 N   0  3  0  0  0  0  0  0  0  0  0  0
   -1.5531   -1.7851    0.1123 N   0  3  0  0  0  0  0  0  0  0  0  0
    2.0774   -0.5381   -1.2661 H   0  0  0  0  0  0  0  0  0  0  0  0
    0.4512   -0.9816   -1.7479 H   0  0  0  0  0  0  0  0  0  0  0  0
    1.0495   -2.2467    0.2410 H   0  0  0  0  0  0  0  0  0  0  0  0
    1.5464   -0.7978    1.0934 H   0  0  0  0  0  0  0  0  0  0  0  0
   -1.5463    0.7974   -1.0935 H   0  0  0  0  0  0  0  0  0  0  0  0
   -1.0497    2.2467   -0.2415 H   0  0  0  0  0  0  0  0  0  0  0  0
   -0.4513    0.9815    1.7480 H   0  0  0  0  0  0  0  0  0  0  0  0
   -2.0774    0.5382    1.2661 H   0  0  0  0  0  0  0  0  0  0  0  0
    0.6444    1.4373   -1.9411 H   0  0  0  0  0  0  0  0  0  0  0  0
   -0.6430   -1.4368    1.9414 H   0  0  0  0  0  0  0  0  0  0  0  0
    1.7833    1.2789    0.7461 H   0  0  0  0  0  0  0  0  0  0  0  0
    1.1538    2.6911    0.1446 H   0  0  0  0  0  0  0  0  0  0  0  0
    2.4181    1.9490   -0.6325 H   0  0  0  0  0  0  0  0  0  0  0  0
   -1.2679   -2.7657    0.0590 H   0  0  0  0  0  0  0  0  0  0  0  0
   -1.5982   -1.4098   -0.8380 H   0  0  0  0  0  0  0  0  0  0  0  0
   -2.4896   -1.7428    0.5212 H   0  0  0  0  0  0  0  0  0  0  0  0
  1  2  1  0  0  0  0
  1  5  1  0  0  0  0
  2  6  1  0  0  0  0
  3  4  1  0  0  0  0
  3  5  1  0  0  0  0
  4  6  1  0  0  0  0
  5  7  1  0  0  0  0
  6  8  1  0  0  0  0
  1  9  1  0  0  0  0
  1 10  1  0  0  0  0
  2 11  1  0  0  0  0
  2 12  1  0  0  0  0
  3 13  1  0  0  0  0
  3 14  1  0  0  0  0
  4 15  1  0  0  0  0
  4 16  1  0  0  0  0
  5 17  1  0  0  0  0
  6 18  1  0  0  0  0
  7 19  1  0  0  0  0
  7 20  1  0  0  0  0
  7 21  1  0  0  0  0
  8 22  1  0  0  0  0
  8 23  1  0  0  0  0
  8 24  1  0  0  0  0
M  CHG  2   7   1   8   1
M  END
$$$$
