
  -OEChem-07191912213D

 45 45  0     0  0  0  0  0  0999 V2000
   -0.6896   -0.8500   -0.0609 C   0  0  0  0  0  0  0  0  0  0  0  0
    1.0827   -2.5509   -0.6161 C   0  0  0  0  0  0  0  0  0  0  0  0
   -1.2510   -0.9735   -1.4726 C   0  0  0  0  0  0  0  0  0  0  0  0
    0.5223   -2.6748   -2.0281 C   0  0  0  0  0  0  0  0  0  0  0  0
    0.0085   -2.1348    0.3916 C   0  0  0  0  0  0  0  0  0  0  0  0
    0.8317   -0.2626   -2.7141 C   0  0  0  0  0  0  0  0  0  0  0  0
   -0.8643   -1.6680   -3.8232 C   0  0  0  0  0  0  0  0  0  0  0  0
   -2.0120   -1.0594    5.0849 C   0  0  0  0  0  0  0  0  0  0  0  0
   -1.5437   -3.4984    5.1792 C   0  0  0  0  0  0  0  0  0  0  0  0
   -0.3307   -1.9407    6.6888 C   0  0  0  0  0  0  0  0  0  0  0  0
    0.6099   -1.9630    1.7851 C   0  0  0  0  0  0  0  0  0  0  0  0
   -0.4590   -2.0799    2.8674 C   0  0  0  0  0  0  0  0  0  0  0  0
    0.1569   -1.9417    4.2517 C   0  0  0  0  0  0  0  0  0  0  0  0
   -0.1754   -1.3885   -2.4809 N   0  3  0  0  0  0  0  0  0  0  0  0
   -0.9043   -2.1057    5.2741 N   0  3  0  0  0  0  0  0  0  0  0  0
   -0.0041    0.0031    0.0024 H   0  0  0  0  0  0  0  0  0  0  0  0
   -1.5157   -0.6251    0.6251 H   0  0  0  0  0  0  0  0  0  0  0  0
    1.5017   -3.5207   -0.3203 H   0  0  0  0  0  0  0  0  0  0  0  0
    1.9197   -1.8430   -0.6001 H   0  0  0  0  0  0  0  0  0  0  0  0
   -2.0343   -1.7407   -1.5016 H   0  0  0  0  0  0  0  0  0  0  0  0
   -1.6783   -0.0234   -1.8126 H   0  0  0  0  0  0  0  0  0  0  0  0
    1.3163   -2.8956   -2.7505 H   0  0  0  0  0  0  0  0  0  0  0  0
   -0.2230   -3.4783   -2.0695 H   0  0  0  0  0  0  0  0  0  0  0  0
   -0.7421   -2.9349    0.4461 H   0  0  0  0  0  0  0  0  0  0  0  0
    1.5679   -0.6177   -3.4376 H   0  0  0  0  0  0  0  0  0  0  0  0
    0.2853    0.5997   -3.1009 H   0  0  0  0  0  0  0  0  0  0  0  0
    1.3024   -0.0318   -1.7565 H   0  0  0  0  0  0  0  0  0  0  0  0
   -0.0945   -1.9632   -4.5385 H   0  0  0  0  0  0  0  0  0  0  0  0
   -1.5852   -2.4729   -3.6676 H   0  0  0  0  0  0  0  0  0  0  0  0
   -1.3631   -0.7501   -4.1402 H   0  0  0  0  0  0  0  0  0  0  0  0
   -1.5533   -0.0713    5.1531 H   0  0  0  0  0  0  0  0  0  0  0  0
   -2.4574   -1.2185    4.1010 H   0  0  0  0  0  0  0  0  0  0  0  0
   -2.7485   -1.2056    5.8774 H   0  0  0  0  0  0  0  0  0  0  0  0
   -0.7531   -4.2387    5.3143 H   0  0  0  0  0  0  0  0  0  0  0  0
   -2.2936   -3.5763    5.9688 H   0  0  0  0  0  0  0  0  0  0  0  0
   -2.0018   -3.5891    4.1925 H   0  0  0  0  0  0  0  0  0  0  0  0
    0.4561   -2.6860    6.8191 H   0  0  0  0  0  0  0  0  0  0  0  0
    0.0698   -0.9285    6.7710 H   0  0  0  0  0  0  0  0  0  0  0  0
   -1.1437   -2.1001    7.3997 H   0  0  0  0  0  0  0  0  0  0  0  0
    1.3808   -2.7252    1.9327 H   0  0  0  0  0  0  0  0  0  0  0  0
    1.0978   -0.9855    1.8406 H   0  0  0  0  0  0  0  0  0  0  0  0
   -1.2208   -1.3043    2.7200 H   0  0  0  0  0  0  0  0  0  0  0  0
   -0.9672   -3.0485    2.7816 H   0  0  0  0  0  0  0  0  0  0  0  0
    0.9069   -2.7140    4.4459 H   0  0  0  0  0  0  0  0  0  0  0  0
    0.5975   -0.9526    4.4076 H   0  0  0  0  0  0  0  0  0  0  0  0
  1  3  1  0  0  0  0
  1  5  1  0  0  0  0
  2  4  1  0  0  0  0
  2  5  1  0  0  0  0
  3 14  1  0  0  0  0
  4 14  1  0  0  0  0
  5 11  1  0  0  0  0
  6 14  1  0  0  0  0
  7 14  1  0  0  0  0
  8 15  1  0  0  0  0
  9 15  1  0  0  0  0
 10 15  1  0  0  0  0
 11 12  1  0  0  0  0
 12 13  1  0  0  0  0
 13 15  1  0  0  0  0
  1 16  1  0  0  0  0
  1 17  1  0  0  0  0
  2 18  1  0  0  0  0
  2 19  1  0  0  0  0
  3 20  1  0  0  0  0
  3 21  1  0  0  0  0
  4 22  1  0  0  0  0
  4 23  1  0  0  0  0
  5 24  1  0  0  0  0
  6 25  1  0  0  0  0
  6 26  1  0  0  0  0
  6 27  1  0  0  0  0
  7 28  1  0  0  0  0
  7 29  1  0  0  0  0
  7 30  1  0  0  0  0
  8 31  1  0  0  0  0
  8 32  1  0  0  0  0
  8 33  1  0  0  0  0
  9 34  1  0  0  0  0
  9 35  1  0  0  0  0
  9 36  1  0  0  0  0
 10 37  1  0  0  0  0
 10 38  1  0  0  0  0
 10 39  1  0  0  0  0
 11 40  1  0  0  0  0
 11 41  1  0  0  0  0
 12 42  1  0  0  0  0
 12 43  1  0  0  0  0
 13 44  1  0  0  0  0
 13 45  1  0  0  0  0
M  CHG  2  14   1  15   1
M  END
$$$$
