
  -OEChem-07051916233D

 29 28  0     0  0  0  0  0  0999 V2000
   -0.0383   -0.9755    0.4974 C   0  0  0  0  0  0  0  0  0  0  0  0
    0.7787   -1.9832   -0.3146 C   0  0  0  0  0  0  0  0  0  0  0  0
    0.4930   -0.8565    1.9277 C   0  0  0  0  0  0  0  0  0  0  0  0
    0.2297   -2.1298   -1.7345 C   0  0  0  0  0  0  0  0  0  0  0  0
   -0.2823    0.1510    2.7810 C   0  0  0  0  0  0  0  0  0  0  0  0
    1.0683   -3.1060   -2.5462 C   0  0  0  0  0  0  0  0  0  0  0  0
    0.2693    0.2856    4.1933 C   0  0  0  0  0  0  0  0  0  0  0  0
    0.5276   -3.1811   -3.9248 N   0  3  0  0  0  0  0  0  0  0  0  0
   -0.5742    1.2418    4.9523 N   0  3  0  0  0  0  0  0  0  0  0  0
   -1.0890   -1.2886    0.5204 H   0  0  0  0  0  0  0  0  0  0  0  0
    0.0000   -0.0000    0.0000 H   0  0  0  0  0  0  0  0  0  0  0  0
    1.8253   -1.6579   -0.3570 H   0  0  0  0  0  0  0  0  0  0  0  0
    0.7631   -2.9586    0.1868 H   0  0  0  0  0  0  0  0  0  0  0  0
    0.4311   -1.8372    2.4157 H   0  0  0  0  0  0  0  0  0  0  0  0
    1.5544   -0.5806    1.9071 H   0  0  0  0  0  0  0  0  0  0  0  0
   -0.8097   -2.4785   -1.6918 H   0  0  0  0  0  0  0  0  0  0  0  0
    0.2191   -1.1497   -2.2273 H   0  0  0  0  0  0  0  0  0  0  0  0
   -1.3288   -0.1760    2.8295 H   0  0  0  0  0  0  0  0  0  0  0  0
   -0.2830    1.1290    2.2839 H   0  0  0  0  0  0  0  0  0  0  0  0
    2.1093   -2.7804   -2.6309 H   0  0  0  0  0  0  0  0  0  0  0  0
    1.0313   -4.1192   -2.1350 H   0  0  0  0  0  0  0  0  0  0  0  0
    0.2393   -0.6630    4.7371 H   0  0  0  0  0  0  0  0  0  0  0  0
    1.2849    0.6893    4.2091 H   0  0  0  0  0  0  0  0  0  0  0  0
    1.1773   -3.6724   -4.5484 H   0  0  0  0  0  0  0  0  0  0  0  0
    0.3704   -2.2428   -4.3091 H   0  0  0  0  0  0  0  0  0  0  0  0
   -0.3669   -3.6831   -3.9421 H   0  0  0  0  0  0  0  0  0  0  0  0
   -1.5663    1.1146    4.7266 H   0  0  0  0  0  0  0  0  0  0  0  0
   -0.3207    2.2103    4.7293 H   0  0  0  0  0  0  0  0  0  0  0  0
   -0.4599    1.1093    5.9628 H   0  0  0  0  0  0  0  0  0  0  0  0
  1  2  1  0  0  0  0
  1  3  1  0  0  0  0
  2  4  1  0  0  0  0
  3  5  1  0  0  0  0
  4  6  1  0  0  0  0
  5  7  1  0  0  0  0
  6  8  1  0  0  0  0
  7  9  1  0  0  0  0
  1 10  1  0  0  0  0
  1 11  1  0  0  0  0
  2 12  1  0  0  0  0
  2 13  1  0  0  0  0
  3 14  1  0  0  0  0
  3 15  1  0  0  0  0
  4 16  1  0  0  0  0
  4 17  1  0  0  0  0
  5 18  1  0  0  0  0
  5 19  1  0  0  0  0
  6 20  1  0  0  0  0
  6 21  1  0  0  0  0
  7 22  1  0  0  0  0
  7 23  1  0  0  0  0
  8 24  1  0  0  0  0
  8 25  1  0  0  0  0
  8 26  1  0  0  0  0
  9 27  1  0  0  0  0
  9 28  1  0  0  0  0
  9 29  1  0  0  0  0
M  CHG  2   8   1   9   1
M  END
$$$$
