
  -OEChem-07051916233D

 38 40  0     0  0  0  0  0  0999 V2000
   -0.2370    1.7120   -0.8898 C   0  0  0  0  0  0  0  0  0  0  0  0
   -1.8382    0.3780    0.5068 C   0  0  0  0  0  0  0  0  0  0  0  0
    0.3158    1.1932    1.5018 C   0  0  0  0  0  0  0  0  0  0  0  0
   -0.5649   -0.7337   -1.3486 C   0  0  0  0  0  0  0  0  0  0  0  0
    1.5957    0.0840   -0.3506 C   0  0  0  0  0  0  0  0  0  0  0  0
   -0.0104   -1.2541    1.0504 C   0  0  0  0  0  0  0  0  0  0  0  0
   -1.2647    0.5660   -0.9094 C   0  0  0  0  0  0  0  0  0  0  0  0
    0.9033    1.3865    0.0920 C   0  0  0  0  0  0  0  0  0  0  0  0
   -0.7084    0.0439    1.4977 C   0  0  0  0  0  0  0  0  0  0  0  0
    0.5687   -1.0611   -0.3616 C   0  0  0  0  0  0  0  0  0  0  0  0
    1.8327   -2.1625   -2.1962 C   0  0  0  0  0  0  0  0  0  0  0  0
    0.2464   -3.4837   -0.8126 C   0  0  0  0  0  0  0  0  0  0  0  0
    2.3805   -2.6763    0.1727 C   0  0  0  0  0  0  0  0  0  0  0  0
    1.2402   -2.3146   -0.7887 N   0  3  0  0  0  0  0  0  0  0  0  0
    0.1696    1.8666   -1.8968 H   0  0  0  0  0  0  0  0  0  0  0  0
   -0.7268    2.6488   -0.5969 H   0  0  0  0  0  0  0  0  0  0  0  0
   -2.3555    1.2917    0.8246 H   0  0  0  0  0  0  0  0  0  0  0  0
   -2.5844   -0.4261    0.5049 H   0  0  0  0  0  0  0  0  0  0  0  0
    1.1199    0.9754    2.2154 H   0  0  0  0  0  0  0  0  0  0  0  0
   -0.1647    2.1207    1.8367 H   0  0  0  0  0  0  0  0  0  0  0  0
   -1.2945   -1.5530   -1.3846 H   0  0  0  0  0  0  0  0  0  0  0  0
   -0.1698   -0.6161   -2.3658 H   0  0  0  0  0  0  0  0  0  0  0  0
    2.0356    0.2184   -1.3472 H   0  0  0  0  0  0  0  0  0  0  0  0
    2.4232   -0.1461    0.3328 H   0  0  0  0  0  0  0  0  0  0  0  0
    0.7844   -1.5116    1.7622 H   0  0  0  0  0  0  0  0  0  0  0  0
   -0.7287   -2.0840    1.0633 H   0  0  0  0  0  0  0  0  0  0  0  0
   -2.0738    0.8054   -1.6083 H   0  0  0  0  0  0  0  0  0  0  0  0
    1.6293    2.2070    0.1021 H   0  0  0  0  0  0  0  0  0  0  0  0
   -1.1236   -0.0864    2.5032 H   0  0  0  0  0  0  0  0  0  0  0  0
    2.3121   -3.1068   -2.4605 H   0  0  0  0  0  0  0  0  0  0  0  0
    1.0137   -1.9329   -2.8805 H   0  0  0  0  0  0  0  0  0  0  0  0
    2.5594   -1.3484   -2.1666 H   0  0  0  0  0  0  0  0  0  0  0  0
    0.7882   -4.3761   -1.1313 H   0  0  0  0  0  0  0  0  0  0  0  0
   -0.1508   -3.6053    0.1970 H   0  0  0  0  0  0  0  0  0  0  0  0
   -0.5472   -3.2333   -1.5191 H   0  0  0  0  0  0  0  0  0  0  0  0
    2.8383   -3.6004   -0.1849 H   0  0  0  0  0  0  0  0  0  0  0  0
    3.0981   -1.8537    0.1644 H   0  0  0  0  0  0  0  0  0  0  0  0
    1.9494   -2.8110    1.1666 H   0  0  0  0  0  0  0  0  0  0  0  0
  1  7  1  0  0  0  0
  1  8  1  0  0  0  0
  2  7  1  0  0  0  0
  2  9  1  0  0  0  0
  3  8  1  0  0  0  0
  3  9  1  0  0  0  0
  4  7  1  0  0  0  0
  4 10  1  0  0  0  0
  5  8  1  0  0  0  0
  5 10  1  0  0  0  0
  6  9  1  0  0  0  0
  6 10  1  0  0  0  0
 10 14  1  0  0  0  0
 11 14  1  0  0  0  0
 12 14  1  0  0  0  0
 13 14  1  0  0  0  0
  1 15  1  0  0  0  0
  1 16  1  0  0  0  0
  2 17  1  0  0  0  0
  2 18  1  0  0  0  0
  3 19  1  0  0  0  0
  3 20  1  0  0  0  0
  4 21  1  0  0  0  0
  4 22  1  0  0  0  0
  5 23  1  0  0  0  0
  5 24  1  0  0  0  0
  6 25  1  0  0  0  0
  6 26  1  0  0  0  0
  7 27  1  0  0  0  0
  8 28  1  0  0  0  0
  9 29  1  0  0  0  0
 11 30  1  0  0  0  0
 11 31  1  0  0  0  0
 11 32  1  0  0  0  0
 12 33  1  0  0  0  0
 12 34  1  0  0  0  0
 12 35  1  0  0  0  0
 13 36  1  0  0  0  0
 13 37  1  0  0  0  0
 13 38  1  0  0  0  0
M  CHG  1  14   1
M  END
$$$$
